44
	Energy:      19.1215601
C          2.78641        0.07257        0.70714
C          2.71879       -1.33944        1.35071
C          3.70999       -2.31497        0.65995
C          1.26205       -1.89851        1.26672
H          3.00647       -1.22735        2.39010
H          3.53253       -2.33780       -0.42332
H          3.60085       -3.32727        1.04517
H          4.74613       -2.01740        0.83642
C         -1.45429       -3.35658        3.74814
C         -1.62561       -4.89503        3.70779
C         -2.83934       -2.66141        3.97227
H         -2.28648       -5.18570        2.89746
H         -2.04378       -5.28832        4.62217
H         -0.67317       -5.40599        3.56471
H         -3.63325       -3.28329        3.59465
H         -2.89767       -1.73480        3.39592
C         -3.12231       -2.27557        5.45343
C         -3.19806       -3.49754        6.39417
H         -3.93037       -4.23545        6.03351
H         -3.49957       -3.18138        7.41138
H         -2.23572       -3.98485        6.48940
C          0.74622       -2.53503        2.58990
H          1.18600       -2.61449        0.43561
H          0.57724       -1.07703        1.00675
C         -0.76289       -2.87078        2.43220
H         -0.81186       -3.10464        4.58156
H         -0.89679       -3.62049        1.64470
H         -1.24887       -1.95683        2.04865
C          1.57425       -3.77707        2.98919
H          0.84752       -1.78479        3.38660
H          1.50530       -4.56238        2.22133
H          1.23117       -4.19341        3.94466
H          2.63477       -3.50724        3.12816
C         -4.44454       -1.47483        5.53340
H         -2.31445       -1.61858        5.80637
H         -5.27133       -2.08918        5.18444
H         -4.38855       -0.58354        4.91615
H         -4.62449       -1.14987        6.56490
C          4.15196        0.75909        0.89654
H          2.02992        0.71475        1.17335
H          2.56807        0.00742       -0.36655
H          4.42609        0.78509        1.95796
H          4.12116        1.78936        0.53295
H          4.92845        0.23343        0.34075
