26
	Energy:       7.3747745
C         -1.41024       -3.19170        3.82643
C         -1.40017       -4.74109        3.79048
C         -2.86307       -2.65456        3.99478
H         -1.88298       -5.11041        2.88249
H         -1.92909       -5.16309        4.64571
H         -0.37952       -5.12722        3.81836
H         -3.58302       -3.38738        3.62013
H         -2.99014       -1.76582        3.37114
C         -3.22438       -2.24830        5.45051
C         -3.20083       -3.44152        6.43182
H         -3.85862       -4.24320        6.08754
H         -3.53481       -3.12756        7.42355
H         -2.18984       -3.83896        6.53952
C          0.72687       -2.95251        2.38822
C         -0.76830       -2.60412        2.53963
H         -0.81039       -2.85795        4.67724
H         -1.31359       -2.95015        1.65774
H         -0.85375       -1.51468        2.56299
C         -4.61890       -1.58506        5.47654
H         -2.49823       -1.50738        5.79515
H         -5.38900       -2.28412        5.14122
H         -4.64167       -0.70920        4.82381
H         -4.87004       -1.25619        6.48774
H          0.87090       -4.02221        2.22463
H          1.28567       -2.65482        3.27848
H          1.14772       -2.42441        1.52971
